NAMEf
NAMEUA(OY
NAME4
NAMEp
NAME
NAME
qNAME
NAME\0
NAME@
pNAMEZ
SNAME
'^H\"NAME?
\"n]NAMEdiT
NAME 
NAMEN
NAMEM
lNAME?56&Yd\0
jr!NAME
7NAMEi2
NAME
NAME
NAMEa
]NAME`
**NAME
fNAME
NAME6[
IIUr7$NAMEr'
NAMEB\eVt
GNAME
8gNAMEEC
:NAME
NAME
uThNAME
NAMEqTe
f5NAMEU(
[TNAMEC
nNAMEY-
@8NAME%B
0NAME
:NAMEC
iNAME
XNAME;
NAMET]W
NAMEu
qNAME
xNAME
NAME
NAMEK;
ENAME
NAMEN
nNAME
.NAME
9NAME
!FNAME
NAME
:NAMEf@
NAME.,Q
NAMEs
\0NAME
\0QNAME
@VNAME
O;NAMEE
sNAMEI
sNAMEh
KNAME
NAME0$
izNAMEIi
2VNAMEz'
NAMEC
NAMEDytl
~NAME\
NAME&
NAME*JK
dNAME()
NAME
NAME}L
NAMEA{
NAME3P
b NAME
d?NAME
NAME
TNAME
NAME7
NAME.;
`\0NAME
8xNAMEa
y?NAME
NAMEq
eNAMEv=
NAMEB@
XNAMEK
ONAME
NAME%H
6NAMEF
NAMEb|Y
NAMEi.S
NAMEz
NAME;R
JNAMEs
NAME
	\NAME
GNAME
:.NAME,c
5HyNAME
hNAMEc
|NAME
NAMES
e7NAMEt|
ENAME
V6NAMET
^eNAME
NAME
FNAMEc
NAME(4
PNAME
NAME
&ANAMEn$
9NAMEU
NAMEt
y*WNAME
/NAME4x?
vNAME
NAMEa/X
-\aNAME
xNAME
NAMEc
n^#RNAME
NAME\a
NAME'
NAMEb
?NAME
;NAME@V
NAME
NAME
7NAME
hhFZNAME
ENAME
jNAME	F
CMvNAME-
,'NAME:
oNAMEj

(NAMEp
hrNAME
fNAMEw
NAMEV
NAMEEjC
NAMEp4Z(
NAME,
I!@>V=]>NAME
Vet1NAME1
LNAME
&NAME
NAMEl
WNAME
mNAMEOY
2GX>NAME4zc
 VMNAMEX$n
6\aNAME-
NAME
NAMEh00
NAMEm
ZNAME
NAME
NAMEy	KP
/NAME
h	NAMEjS@
,*NAME
AlNAME#
NAME
$NAME
NAMEC
NAMEw
^NAME
r@xNAME;<
SNAME&
NAMED
K$+ NAME
NAMEArZ
kNJNAME7
4NAMEa
NAME%\e
qFNAME
NAME9a
sNAME
NAME\e7X
NAMEFC,sG
NAME-
NAME
[NAME
NAME
]NAME
U'l.8NAMEw
>NAMEC\e
NAME!
HNAMEg0
G\)NAME
NAMEV
{NAME\0
NAME\e\e
NAME+_f:
NAME-
NAME\e
NAME0h
NAME
NAME	
NAME^)
NAMEz\aTDt
]NAME
NAMEP8
ecjgNAME
NAME$
6NAME
NAME\q
X2NAME
xNAME
8NAME
NAME2 G
}BINAMEnK
ptNAME
?NAMEjR?SW9=
XNAME
NAME
NAME@m
NAME
VNAME`L
NAME
NAME 
ZkANAME
TiNAME
2.NAME
NAME2
NAMEph
PE|gdNAME{
fl4NAME
~]NAME+]1B
	iMNAME
\aNAMET!
NAMEP
NAME
NAMEI
NAME9h
NAME)
NAME
<NAME9
YNAME
[NAMEA
NAMEi
NAME*

qNAME
NAME
n5bNAME
NAME
iKNAME
oNAME
>NAMEb
LNAME@
NAMEP
s~E+NAME
AmNAME9A
KNAME
`NAME
NAME?
v$CYNAME
NAMEp.
64NAMEl
NAME1

|n: 2NAME)
UNAME
NAME^
NAMEr
=DNAME
<NAMEW
YNAME
r<Sj%NAME
gNAME
NAME\a7
FNAME
NAMEG
6,NAMELVqi
nNAME?
NAME~\a
qNAME7C
NAMER_
C>NAME
NAME

NAME
NAME1
NAME\"
NAMEm}
 %<NAME\a
]NAME
*NAME3
6o2PNAME
NAME+\eRkU
M\eNAME
$\NAME
NAME
w!NAME
_NAME
:NAMEz
NAMEQ38X
NAME$
NAMEkg
pNAME
NAME
NAMEl=
LcNAME
gNAMEjl
-1FqzNAMEY
NAMED0
q>NAME
NAME]
T#NAMEAY
NAME[\a
 \"NAMEN~TN
NAME6K
NAME^Mq\>
e;7G1ltNAME
NAME^
Q<NAMEa
8x+NAME
WNAME
 NAME.
NAME
NAMEnjn[
0NAMEb
NAMEHf
NAMEYK
NAME1
cNAMEm
~NAMEW
NAMEClG
n_NAMEjI
mXNAME=]
NAMEM\"
\0RNAMEM
NAMEU
*NAME
u`NAME
!NAME
NAMEn
!NAMEn
DNAME
?INAME
NAMERV
NAMEL
3\7NAME
sNAME
Y}NAME{
;tNAME
v0'NAMEz
dNAME\edP
GtNAMEB
%?mNAME
v4NAME2
yvNAME2meU
NAME\aNP648
pNAME\e?[H
NAMEcl
HNAMEe
;2NAME]
NAME:K
CNAME
9nNAME
jNAMEdV
NAMEv0
NAMEuMd
VNAMEU
RNAME
~gNAME
NAME8i;
ONAME
NAMEw
U?]\SE8NAME
NAMEo
{NAME<8
PBsNAMEt
NAME8
NAME'\0QJ
NAMEtx*`
NAME
qNAMEo
n`NAMEmv.	
NAMEn.0
